
     RDKit          3D

  5  4  0  0  0  0  0  0  0  0999 V2000
   36.6067   48.2896   37.6636 C   0  0  0  0  0  0  0  0  0  0  0  0
   36.5615   46.8825   37.1295 C   0  0  0  0  0  0  0  0  0  0  0  0
   37.8185   46.2301   36.9660 N   0  0  0  0  0  0  0  0  0  0  0  0
   37.8200   44.8610   36.4752 C   0  0  0  0  0  0  0  0  0  0  0  0
   35.4699   46.3619   36.8612 O   0  0  0  0  0  0  0  0  0  0  0  0
  1  2  1  0
  2  3  1  0
  3  4  1  0
  2  5  2  0
M  END
$$$$
