
     RDKit          3D

 18 19  0  0  0  0  0  0  0  0999 V2000
    2.2132  -19.3463   -5.7251 C   0  0  0  0  0  0  0  0  0  0  0  0
    1.9976  -17.9882   -5.7245 C   0  0  0  0  0  0  0  0  0  0  0  0
    3.0515  -17.1166   -5.5476 C   0  0  0  0  0  0  0  0  0  0  0  0
    4.3504  -17.5751   -5.3664 C   0  0  0  0  0  0  0  0  0  0  0  0
    4.5267  -18.9354   -5.3729 C   0  0  0  0  0  0  0  0  0  0  0  0
    3.4937  -19.8318   -5.5472 C   0  0  0  0  0  0  0  0  0  0  0  0
    5.4385  -16.7403   -5.1854 O   0  0  0  0  0  0  0  0  0  0  0  0
    6.1350  -16.2278   -6.2553 C   0  0  0  0  0  0  0  0  0  0  0  0
    5.8515  -16.7208   -7.4002 O   0  0  0  0  0  0  0  0  0  0  0  0
    7.1361  -15.1982   -6.1651 C   0  0  0  0  0  0  0  0  0  0  0  0
    7.3319  -14.6190   -5.0708 O   0  0  0  0  0  0  0  0  0  0  0  0
    7.9017  -14.8163   -7.2512 O   0  0  0  0  0  0  0  0  0  0  0  0
    9.0360  -15.4924   -7.6716 C   0  0  0  0  0  0  0  0  0  0  0  0
    9.0115  -16.1054   -8.9029 C   0  0  0  0  0  0  0  0  0  0  0  0
   10.1719  -16.7747   -9.2887 C   0  0  0  0  0  0  0  0  0  0  0  0
   11.2959  -16.8406   -8.5113 C   0  0  0  0  0  0  0  0  0  0  0  0
   11.3046  -16.2222   -7.2821 C   0  0  0  0  0  0  0  0  0  0  0  0
   10.1550  -15.5432   -6.8684 C   0  0  0  0  0  0  0  0  0  0  0  0
  1  2  2  0
  2  3  1  0
  3  4  2  0
  4  5  1  0
  5  6  2  0
  4  7  1  0
  7  8  1  0
  8  9  2  0
  8 10  1  0
 10 11  2  0
 10 12  1  0
 12 13  1  0
 13 14  2  0
 14 15  1  0
 15 16  2  0
 16 17  1  0
 17 18  2  0
  6  1  1  0
 18 13  1  0
M  END
$$$$
