
     RDKit          3D

 18 19  0  0  0  0  0  0  0  0999 V2000
    0.4271   -6.4669   -2.1387 C   0  0  0  0  0  0  0  0  0  0  0  0
    0.7985   -5.9576   -3.3608 C   0  0  0  0  0  0  0  0  0  0  0  0
    1.3728   -6.7764   -4.3102 C   0  0  0  0  0  0  0  0  0  0  0  0
    1.5929   -8.1265   -4.0674 C   0  0  0  0  0  0  0  0  0  0  0  0
    1.2098   -8.5986   -2.8377 C   0  0  0  0  0  0  0  0  0  0  0  0
    0.6335   -7.8054   -1.8683 C   0  0  0  0  0  0  0  0  0  0  0  0
    2.1652   -8.9864   -4.9876 O   0  0  0  0  0  0  0  0  0  0  0  0
    1.6383  -10.2343   -5.2272 C   0  0  0  0  0  0  0  0  0  0  0  0
    0.7923  -10.3147   -6.1821 O   0  0  0  0  0  0  0  0  0  0  0  0
    1.9735  -11.4221   -4.4873 C   0  0  0  0  0  0  0  0  0  0  0  0
    2.9394  -11.4022   -3.6886 O   0  0  0  0  0  0  0  0  0  0  0  0
    1.2638  -12.6008   -4.6231 O   0  0  0  0  0  0  0  0  0  0  0  0
    1.8552  -13.8496   -4.7294 C   0  0  0  0  0  0  0  0  0  0  0  0
    3.0255  -14.0780   -4.0434 C   0  0  0  0  0  0  0  0  0  0  0  0
    3.5883  -15.3465   -4.1766 C   0  0  0  0  0  0  0  0  0  0  0  0
    3.0354  -16.3381   -4.9402 C   0  0  0  0  0  0  0  0  0  0  0  0
    1.8644  -16.0940   -5.6203 C   0  0  0  0  0  0  0  0  0  0  0  0
    1.2769  -14.8309   -5.5057 C   0  0  0  0  0  0  0  0  0  0  0  0
  1  2  2  0
  2  3  1  0
  3  4  2  0
  4  5  1  0
  5  6  2  0
  4  7  1  0
  7  8  1  0
  8  9  2  0
  8 10  1  0
 10 11  2  0
 10 12  1  0
 12 13  1  0
 13 14  2  0
 14 15  1  0
 15 16  2  0
 16 17  1  0
 17 18  2  0
  6  1  1  0
 18 13  1  0
M  END
$$$$
