
     RDKit          3D

 18 19  0  0  0  0  0  0  0  0999 V2000
  -18.8085   20.0313   -2.7575 C   0  0  0  0  0  0  0  0  0  0  0  0
  -17.6849   20.0786   -1.9662 C   0  0  0  0  0  0  0  0  0  0  0  0
  -16.8312   18.9974   -1.9049 C   0  0  0  0  0  0  0  0  0  0  0  0
  -17.0741   17.8383   -2.6312 C   0  0  0  0  0  0  0  0  0  0  0  0
  -18.2040   17.8278   -3.4090 C   0  0  0  0  0  0  0  0  0  0  0  0
  -19.0763   18.8924   -3.4911 C   0  0  0  0  0  0  0  0  0  0  0  0
  -16.2477   16.7293   -2.6020 O   0  0  0  0  0  0  0  0  0  0  0  0
  -15.0637   16.6987   -3.3018 C   0  0  0  0  0  0  0  0  0  0  0  0
  -15.1561   16.8224   -4.5707 O   0  0  0  0  0  0  0  0  0  0  0  0
  -13.7631   16.5400   -2.7069 C   0  0  0  0  0  0  0  0  0  0  0  0
  -13.0198   17.5396   -2.5674 O   0  0  0  0  0  0  0  0  0  0  0  0
  -13.2932   15.3129   -2.2769 O   0  0  0  0  0  0  0  0  0  0  0  0
  -14.1109   14.2334   -1.9829 C   0  0  0  0  0  0  0  0  0  0  0  0
  -14.4652   14.0214   -0.6707 C   0  0  0  0  0  0  0  0  0  0  0  0
  -15.2885   12.9254   -0.4170 C   0  0  0  0  0  0  0  0  0  0  0  0
  -15.7408   12.0822   -1.3949 C   0  0  0  0  0  0  0  0  0  0  0  0
  -15.3775   12.3077   -2.7028 C   0  0  0  0  0  0  0  0  0  0  0  0
  -14.5525   13.3994   -2.9877 C   0  0  0  0  0  0  0  0  0  0  0  0
  1  2  2  0
  2  3  1  0
  3  4  2  0
  4  5  1  0
  5  6  2  0
  4  7  1  0
  7  8  1  0
  8  9  2  0
  8 10  1  0
 10 11  2  0
 10 12  1  0
 12 13  1  0
 13 14  2  0
 14 15  1  0
 15 16  2  0
 16 17  1  0
 17 18  2  0
  6  1  1  0
 18 13  1  0
M  END
$$$$
