
     RDKit          3D

 18 19  0  0  0  0  0  0  0  0999 V2000
   -8.8310   -2.8380   -2.5314 C   0  0  0  0  0  0  0  0  0  0  0  0
   -8.8406   -1.8409   -3.4783 C   0  0  0  0  0  0  0  0  0  0  0  0
   -9.8543   -1.7771   -4.4110 C   0  0  0  0  0  0  0  0  0  0  0  0
  -10.8873   -2.7061   -4.4255 C   0  0  0  0  0  0  0  0  0  0  0  0
  -10.8442   -3.6856   -3.4662 C   0  0  0  0  0  0  0  0  0  0  0  0
   -9.8446   -3.7759   -2.5208 C   0  0  0  0  0  0  0  0  0  0  0  0
  -11.9248   -2.6830   -5.3402 O   0  0  0  0  0  0  0  0  0  0  0  0
  -12.8926   -1.7061   -5.3023 C   0  0  0  0  0  0  0  0  0  0  0  0
  -13.3090   -1.3706   -4.1413 O   0  0  0  0  0  0  0  0  0  0  0  0
  -13.4489   -1.0572   -6.4599 C   0  0  0  0  0  0  0  0  0  0  0  0
  -13.6418    0.1812   -6.4428 O   0  0  0  0  0  0  0  0  0  0  0  0
  -13.7840   -1.7535   -7.6064 O   0  0  0  0  0  0  0  0  0  0  0  0
  -15.0484   -1.7433   -8.1734 C   0  0  0  0  0  0  0  0  0  0  0  0
  -15.2385   -2.4186   -9.3568 C   0  0  0  0  0  0  0  0  0  0  0  0
  -16.5243   -2.3840   -9.8942 C   0  0  0  0  0  0  0  0  0  0  0  0
  -17.5681   -1.7239   -9.3053 C   0  0  0  0  0  0  0  0  0  0  0  0
  -17.3619   -1.0530   -8.1217 C   0  0  0  0  0  0  0  0  0  0  0  0
  -16.0825   -1.0702   -7.5589 C   0  0  0  0  0  0  0  0  0  0  0  0
  1  2  2  0
  2  3  1  0
  3  4  2  0
  4  5  1  0
  5  6  2  0
  4  7  1  0
  7  8  1  0
  8  9  2  0
  8 10  1  0
 10 11  2  0
 10 12  1  0
 12 13  1  0
 13 14  2  0
 14 15  1  0
 15 16  2  0
 16 17  1  0
 17 18  2  0
  6  1  1  0
 18 13  1  0
M  END
$$$$
