
     RDKit          3D

 18 19  0  0  0  0  0  0  0  0999 V2000
   -8.3817    2.0310   -5.7379 C   0  0  0  0  0  0  0  0  0  0  0  0
   -8.9021    1.0029   -4.9876 C   0  0  0  0  0  0  0  0  0  0  0  0
   -8.3847   -0.2705   -5.0986 C   0  0  0  0  0  0  0  0  0  0  0  0
   -7.3334   -0.5544   -5.9614 C   0  0  0  0  0  0  0  0  0  0  0  0
   -6.8404    0.4957   -6.6933 C   0  0  0  0  0  0  0  0  0  0  0  0
   -7.3362    1.7792   -6.6044 C   0  0  0  0  0  0  0  0  0  0  0  0
   -6.7815   -1.8146   -6.1068 O   0  0  0  0  0  0  0  0  0  0  0  0
   -5.7521   -2.2440   -5.3017 C   0  0  0  0  0  0  0  0  0  0  0  0
   -4.5701   -1.9736   -5.7065 O   0  0  0  0  0  0  0  0  0  0  0  0
   -5.9217   -2.9596   -4.0649 C   0  0  0  0  0  0  0  0  0  0  0  0
   -7.0600   -3.0381   -3.5460 O   0  0  0  0  0  0  0  0  0  0  0  0
   -4.8658   -3.5728   -3.4164 O   0  0  0  0  0  0  0  0  0  0  0  0
   -4.5968   -3.4206   -2.0656 C   0  0  0  0  0  0  0  0  0  0  0  0
   -3.4808   -4.0369   -1.5488 C   0  0  0  0  0  0  0  0  0  0  0  0
   -3.2457   -3.8594   -0.1863 C   0  0  0  0  0  0  0  0  0  0  0  0
   -4.0591   -3.1184    0.6270 C   0  0  0  0  0  0  0  0  0  0  0  0
   -5.1718   -2.5081    0.0950 C   0  0  0  0  0  0  0  0  0  0  0  0
   -5.4332   -2.6685   -1.2687 C   0  0  0  0  0  0  0  0  0  0  0  0
  1  2  2  0
  2  3  1  0
  3  4  2  0
  4  5  1  0
  5  6  2  0
  4  7  1  0
  7  8  1  0
  8  9  2  0
  8 10  1  0
 10 11  2  0
 10 12  1  0
 12 13  1  0
 13 14  2  0
 14 15  1  0
 15 16  2  0
 16 17  1  0
 17 18  2  0
  6  1  1  0
 18 13  1  0
M  END
$$$$
