
     RDKit          3D

 18 19  0  0  0  0  0  0  0  0999 V2000
    4.7793  -12.1062   -2.9765 C   0  0  0  0  0  0  0  0  0  0  0  0
    3.7870  -11.6155   -2.1608 C   0  0  0  0  0  0  0  0  0  0  0  0
    2.5182  -11.4050   -2.6582 C   0  0  0  0  0  0  0  0  0  0  0  0
    2.2033  -11.6780   -3.9835 C   0  0  0  0  0  0  0  0  0  0  0  0
    3.2182  -12.1660   -4.7667 C   0  0  0  0  0  0  0  0  0  0  0  0
    4.4962  -12.3870   -4.2987 C   0  0  0  0  0  0  0  0  0  0  0  0
    0.9463  -11.4832   -4.5274 O   0  0  0  0  0  0  0  0  0  0  0  0
    0.3324  -10.2527   -4.4918 C   0  0  0  0  0  0  0  0  0  0  0  0
   -0.8894  -10.2434   -4.1159 O   0  0  0  0  0  0  0  0  0  0  0  0
    0.9660   -9.0094   -4.8428 C   0  0  0  0  0  0  0  0  0  0  0  0
    1.9167   -9.0079   -5.6598 O   0  0  0  0  0  0  0  0  0  0  0  0
    0.5636   -7.7994   -4.3085 O   0  0  0  0  0  0  0  0  0  0  0  0
   -0.2451   -6.8925   -4.9748 C   0  0  0  0  0  0  0  0  0  0  0  0
    0.3010   -6.1681   -6.0089 C   0  0  0  0  0  0  0  0  0  0  0  0
   -0.5452   -5.2668   -6.6531 C   0  0  0  0  0  0  0  0  0  0  0  0
   -1.8555   -5.0842   -6.3040 C   0  0  0  0  0  0  0  0  0  0  0  0
   -2.3870   -5.8165   -5.2673 C   0  0  0  0  0  0  0  0  0  0  0  0
   -1.5621   -6.7282   -4.6024 C   0  0  0  0  0  0  0  0  0  0  0  0
  1  2  2  0
  2  3  1  0
  3  4  2  0
  4  5  1  0
  5  6  2  0
  4  7  1  0
  7  8  1  0
  8  9  2  0
  8 10  1  0
 10 11  2  0
 10 12  1  0
 12 13  1  0
 13 14  2  0
 14 15  1  0
 15 16  2  0
 16 17  1  0
 17 18  2  0
  6  1  1  0
 18 13  1  0
M  END
$$$$
