
     RDKit          3D

 18 19  0  0  0  0  0  0  0  0999 V2000
  -20.3297   -3.2879  -11.1451 C   0  0  0  0  0  0  0  0  0  0  0  0
  -19.2213   -3.2103  -10.3350 C   0  0  0  0  0  0  0  0  0  0  0  0
  -17.9844   -3.5923  -10.8100 C   0  0  0  0  0  0  0  0  0  0  0  0
  -17.8180   -4.0627  -12.1066 C   0  0  0  0  0  0  0  0  0  0  0  0
  -18.9457   -4.1261  -12.8850 C   0  0  0  0  0  0  0  0  0  0  0  0
  -20.1955   -3.7516  -12.4390 C   0  0  0  0  0  0  0  0  0  0  0  0
  -16.5986   -4.4572  -12.6272 O   0  0  0  0  0  0  0  0  0  0  0  0
  -15.9715   -3.7317  -13.6136 C   0  0  0  0  0  0  0  0  0  0  0  0
  -16.2354   -4.0721  -14.8172 O   0  0  0  0  0  0  0  0  0  0  0  0
  -15.0613   -2.6425  -13.3778 C   0  0  0  0  0  0  0  0  0  0  0  0
  -14.1125   -2.4452  -14.1729 O   0  0  0  0  0  0  0  0  0  0  0  0
  -15.1922   -1.7927  -12.2951 O   0  0  0  0  0  0  0  0  0  0  0  0
  -14.7578   -0.4768  -12.2901 C   0  0  0  0  0  0  0  0  0  0  0  0
  -13.5688   -0.1843  -11.6631 C   0  0  0  0  0  0  0  0  0  0  0  0
  -13.1673    1.1505  -11.6805 C   0  0  0  0  0  0  0  0  0  0  0  0
  -13.8905    2.1458  -12.2793 C   0  0  0  0  0  0  0  0  0  0  0  0
  -15.0779    1.8371  -12.9023 C   0  0  0  0  0  0  0  0  0  0  0  0
  -15.5061    0.5065  -12.9011 C   0  0  0  0  0  0  0  0  0  0  0  0
  1  2  2  0
  2  3  1  0
  3  4  2  0
  4  5  1  0
  5  6  2  0
  4  7  1  0
  7  8  1  0
  8  9  2  0
  8 10  1  0
 10 11  2  0
 10 12  1  0
 12 13  1  0
 13 14  2  0
 14 15  1  0
 15 16  2  0
 16 17  1  0
 17 18  2  0
  6  1  1  0
 18 13  1  0
M  END
$$$$
