
     RDKit          3D

 18 19  0  0  0  0  0  0  0  0999 V2000
  -17.0000   -2.4789   -7.2865 C   0  0  0  0  0  0  0  0  0  0  0  0
  -16.2614   -3.5669   -6.8844 C   0  0  0  0  0  0  0  0  0  0  0  0
  -14.8834   -3.5165   -6.9006 C   0  0  0  0  0  0  0  0  0  0  0  0
  -14.2032   -2.3794   -7.3183 C   0  0  0  0  0  0  0  0  0  0  0  0
  -14.9731   -1.3146   -7.7119 C   0  0  0  0  0  0  0  0  0  0  0  0
  -16.3517   -1.3343   -7.7070 C   0  0  0  0  0  0  0  0  0  0  0  0
  -12.8237   -2.2818   -7.3519 O   0  0  0  0  0  0  0  0  0  0  0  0
  -12.0815   -2.2101   -6.1959 C   0  0  0  0  0  0  0  0  0  0  0  0
  -11.2781   -3.1809   -5.9812 O   0  0  0  0  0  0  0  0  0  0  0  0
  -12.1536   -1.1369   -5.2400 C   0  0  0  0  0  0  0  0  0  0  0  0
  -12.9006   -0.1559   -5.4656 O   0  0  0  0  0  0  0  0  0  0  0  0
  -11.4226   -1.1436   -4.0665 O   0  0  0  0  0  0  0  0  0  0  0  0
  -10.0420   -1.0350   -4.0169 C   0  0  0  0  0  0  0  0  0  0  0  0
   -9.4052   -0.3437   -5.0215 C   0  0  0  0  0  0  0  0  0  0  0  0
   -8.0166   -0.2573   -4.9349 C   0  0  0  0  0  0  0  0  0  0  0  0
   -7.2900   -0.8173   -3.9197 C   0  0  0  0  0  0  0  0  0  0  0  0
   -7.9417   -1.5057   -2.9222 C   0  0  0  0  0  0  0  0  0  0  0  0
   -9.3343   -1.6089   -2.9825 C   0  0  0  0  0  0  0  0  0  0  0  0
  1  2  2  0
  2  3  1  0
  3  4  2  0
  4  5  1  0
  5  6  2  0
  4  7  1  0
  7  8  1  0
  8  9  2  0
  8 10  1  0
 10 11  2  0
 10 12  1  0
 12 13  1  0
 13 14  2  0
 14 15  1  0
 15 16  2  0
 16 17  1  0
 17 18  2  0
  6  1  1  0
 18 13  1  0
M  END
$$$$
