
     RDKit          3D

 18 19  0  0  0  0  0  0  0  0999 V2000
    5.4981  -17.0890  -12.8916 C   0  0  0  0  0  0  0  0  0  0  0  0
    5.5637  -17.5715  -14.1776 C   0  0  0  0  0  0  0  0  0  0  0  0
    4.4316  -17.6122  -14.9639 C   0  0  0  0  0  0  0  0  0  0  0  0
    3.2019  -17.1727  -14.4896 C   0  0  0  0  0  0  0  0  0  0  0  0
    3.1752  -16.6982  -13.2029 C   0  0  0  0  0  0  0  0  0  0  0  0
    4.2895  -16.6449  -12.3925 C   0  0  0  0  0  0  0  0  0  0  0  0
    2.0401  -17.1939  -15.2402 O   0  0  0  0  0  0  0  0  0  0  0  0
    1.8363  -16.3067  -16.2716 C   0  0  0  0  0  0  0  0  0  0  0  0
    0.7465  -15.6396  -16.2337 O   0  0  0  0  0  0  0  0  0  0  0  0
    2.7516  -16.0907  -17.3607 C   0  0  0  0  0  0  0  0  0  0  0  0
    3.7832  -16.7969  -17.4520 O   0  0  0  0  0  0  0  0  0  0  0  0
    2.5369  -15.1224  -18.3240 O   0  0  0  0  0  0  0  0  0  0  0  0
    1.3124  -14.8978  -18.9326 C   0  0  0  0  0  0  0  0  0  0  0  0
    0.6689  -15.9638  -19.5175 C   0  0  0  0  0  0  0  0  0  0  0  0
   -0.5599  -15.6961  -20.1188 C   0  0  0  0  0  0  0  0  0  0  0  0
   -1.1286  -14.4520  -20.1464 C   0  0  0  0  0  0  0  0  0  0  0  0
   -0.4724  -13.3958  -19.5569 C   0  0  0  0  0  0  0  0  0  0  0  0
    0.7620  -13.6341  -18.9460 C   0  0  0  0  0  0  0  0  0  0  0  0
  1  2  2  0
  2  3  1  0
  3  4  2  0
  4  5  1  0
  5  6  2  0
  4  7  1  0
  7  8  1  0
  8  9  2  0
  8 10  1  0
 10 11  2  0
 10 12  1  0
 12 13  1  0
 13 14  2  0
 14 15  1  0
 15 16  2  0
 16 17  1  0
 17 18  2  0
  6  1  1  0
 18 13  1  0
M  END
$$$$
