
     RDKit          3D

 18 19  0  0  0  0  0  0  0  0999 V2000
  -13.7254   -5.6025   -2.9909 C   0  0  0  0  0  0  0  0  0  0  0  0
  -13.6071   -4.3857   -3.6205 C   0  0  0  0  0  0  0  0  0  0  0  0
  -12.5171   -3.5779   -3.3739 C   0  0  0  0  0  0  0  0  0  0  0  0
  -11.5141   -3.9610   -2.4921 C   0  0  0  0  0  0  0  0  0  0  0  0
  -11.6663   -5.1807   -1.8832 C   0  0  0  0  0  0  0  0  0  0  0  0
  -12.7441   -6.0104   -2.1090 C   0  0  0  0  0  0  0  0  0  0  0  0
  -10.4031   -3.1855   -2.2130 O   0  0  0  0  0  0  0  0  0  0  0  0
   -9.2199   -3.3564   -2.8936 C   0  0  0  0  0  0  0  0  0  0  0  0
   -9.1049   -4.4413   -3.5598 O   0  0  0  0  0  0  0  0  0  0  0  0
   -8.1337   -2.4126   -2.9002 C   0  0  0  0  0  0  0  0  0  0  0  0
   -7.6939   -1.9671   -1.8143 O   0  0  0  0  0  0  0  0  0  0  0  0
   -7.5472   -1.9708   -4.0717 O   0  0  0  0  0  0  0  0  0  0  0  0
   -7.6201   -0.6636   -4.5259 C   0  0  0  0  0  0  0  0  0  0  0  0
   -7.5779   -0.4408   -5.8827 C   0  0  0  0  0  0  0  0  0  0  0  0
   -7.6540    0.8876   -6.2985 C   0  0  0  0  0  0  0  0  0  0  0  0
   -7.7653    1.9414   -5.4330 C   0  0  0  0  0  0  0  0  0  0  0  0
   -7.8062    1.7021   -4.0785 C   0  0  0  0  0  0  0  0  0  0  0  0
   -7.7319    0.3796   -3.6319 C   0  0  0  0  0  0  0  0  0  0  0  0
  1  2  2  0
  2  3  1  0
  3  4  2  0
  4  5  1  0
  5  6  2  0
  4  7  1  0
  7  8  1  0
  8  9  2  0
  8 10  1  0
 10 11  2  0
 10 12  1  0
 12 13  1  0
 13 14  2  0
 14 15  1  0
 15 16  2  0
 16 17  1  0
 17 18  2  0
  6  1  1  0
 18 13  1  0
M  END
$$$$
