
     RDKit          3D

 18 19  0  0  0  0  0  0  0  0999 V2000
    1.4826  -17.9524   -8.4769 C   0  0  0  0  0  0  0  0  0  0  0  0
    0.3378  -17.2933   -8.0948 C   0  0  0  0  0  0  0  0  0  0  0  0
   -0.7661  -18.0039   -7.6728 C   0  0  0  0  0  0  0  0  0  0  0  0
   -0.7593  -19.3923   -7.6201 C   0  0  0  0  0  0  0  0  0  0  0  0
    0.3996  -20.0147   -8.0088 C   0  0  0  0  0  0  0  0  0  0  0  0
    1.5192  -19.3323   -8.4352 C   0  0  0  0  0  0  0  0  0  0  0  0
   -1.8410  -20.1477   -7.2043 O   0  0  0  0  0  0  0  0  0  0  0  0
   -3.1245  -19.8337   -7.5870 C   0  0  0  0  0  0  0  0  0  0  0  0
   -3.2467  -19.2322   -8.7082 O   0  0  0  0  0  0  0  0  0  0  0  0
   -4.3053  -20.1338   -6.8214 C   0  0  0  0  0  0  0  0  0  0  0  0
   -5.3697  -20.4281   -7.4145 O   0  0  0  0  0  0  0  0  0  0  0  0
   -4.3141  -20.1105   -5.4390 O   0  0  0  0  0  0  0  0  0  0  0  0
   -5.2368  -20.7923   -4.6617 C   0  0  0  0  0  0  0  0  0  0  0  0
   -5.0665  -22.1456   -4.4829 C   0  0  0  0  0  0  0  0  0  0  0  0
   -6.0159  -22.7942   -3.6947 C   0  0  0  0  0  0  0  0  0  0  0  0
   -7.0751  -22.1529   -3.1126 C   0  0  0  0  0  0  0  0  0  0  0  0
   -7.2317  -20.7988   -3.3010 C   0  0  0  0  0  0  0  0  0  0  0  0
   -6.2950  -20.1215   -4.0869 C   0  0  0  0  0  0  0  0  0  0  0  0
  1  2  2  0
  2  3  1  0
  3  4  2  0
  4  5  1  0
  5  6  2  0
  4  7  1  0
  7  8  1  0
  8  9  2  0
  8 10  1  0
 10 11  2  0
 10 12  1  0
 12 13  1  0
 13 14  2  0
 14 15  1  0
 15 16  2  0
 16 17  1  0
 17 18  2  0
  6  1  1  0
 18 13  1  0
M  END
$$$$
