
     RDKit          3D

 18 19  0  0  0  0  0  0  0  0999 V2000
   12.5585  -17.9580  -16.7089 C   0  0  0  0  0  0  0  0  0  0  0  0
   12.5292  -16.6088  -16.4451 C   0  0  0  0  0  0  0  0  0  0  0  0
   12.8492  -16.1384  -15.1889 C   0  0  0  0  0  0  0  0  0  0  0  0
   13.2076  -17.0008  -14.1602 C   0  0  0  0  0  0  0  0  0  0  0  0
   13.2257  -18.3391  -14.4606 C   0  0  0  0  0  0  0  0  0  0  0  0
   12.9110  -18.8397  -15.7061 C   0  0  0  0  0  0  0  0  0  0  0  0
   13.5365  -16.5764  -12.8853 O   0  0  0  0  0  0  0  0  0  0  0  0
   14.8375  -16.2983  -12.5354 C   0  0  0  0  0  0  0  0  0  0  0  0
   15.7348  -17.0330  -13.0732 O   0  0  0  0  0  0  0  0  0  0  0  0
   15.2377  -15.2583  -11.6251 C   0  0  0  0  0  0  0  0  0  0  0  0
   16.1663  -14.4792  -11.9445 O   0  0  0  0  0  0  0  0  0  0  0  0
   14.6315  -15.0806  -10.3952 O   0  0  0  0  0  0  0  0  0  0  0  0
   15.1977  -14.3654   -9.3520 C   0  0  0  0  0  0  0  0  0  0  0  0
   16.5671  -14.2403   -9.3141 C   0  0  0  0  0  0  0  0  0  0  0  0
   17.0970  -13.5136   -8.2490 C   0  0  0  0  0  0  0  0  0  0  0  0
   16.3281  -12.9401   -7.2734 C   0  0  0  0  0  0  0  0  0  0  0  0
   14.9596  -13.0742   -7.3254 C   0  0  0  0  0  0  0  0  0  0  0  0
   14.3995  -13.7977   -8.3821 C   0  0  0  0  0  0  0  0  0  0  0  0
  1  2  2  0
  2  3  1  0
  3  4  2  0
  4  5  1  0
  5  6  2  0
  4  7  1  0
  7  8  1  0
  8  9  2  0
  8 10  1  0
 10 11  2  0
 10 12  1  0
 12 13  1  0
 13 14  2  0
 14 15  1  0
 15 16  2  0
 16 17  1  0
 17 18  2  0
  6  1  1  0
 18 13  1  0
M  END
$$$$
