
     RDKit          3D

 18 19  0  0  0  0  0  0  0  0999 V2000
    1.5539  -10.6257   -4.7864 C   0  0  0  0  0  0  0  0  0  0  0  0
    2.8936  -10.8757   -4.9698 C   0  0  0  0  0  0  0  0  0  0  0  0
    3.3042  -12.0022   -5.6509 C   0  0  0  0  0  0  0  0  0  0  0  0
    2.3899  -12.9115   -6.1683 C   0  0  0  0  0  0  0  0  0  0  0  0
    1.0630  -12.6290   -5.9659 C   0  0  0  0  0  0  0  0  0  0  0  0
    0.6215  -11.5115   -5.2895 C   0  0  0  0  0  0  0  0  0  0  0  0
    2.7535  -14.0543   -6.8579 O   0  0  0  0  0  0  0  0  0  0  0  0
    3.2445  -15.1606   -6.2040 C   0  0  0  0  0  0  0  0  0  0  0  0
    4.4739  -15.4399   -6.4148 O   0  0  0  0  0  0  0  0  0  0  0  0
    2.4776  -15.9991   -5.3212 C   0  0  0  0  0  0  0  0  0  0  0  0
    1.2548  -15.7749   -5.1611 O   0  0  0  0  0  0  0  0  0  0  0  0
    3.0423  -17.0568   -4.6328 O   0  0  0  0  0  0  0  0  0  0  0  0
    4.0354  -16.9131   -3.6770 C   0  0  0  0  0  0  0  0  0  0  0  0
    5.1677  -17.6860   -3.7910 C   0  0  0  0  0  0  0  0  0  0  0  0
    6.1424  -17.5114   -2.8098 C   0  0  0  0  0  0  0  0  0  0  0  0
    6.0159  -16.6280   -1.7727 C   0  0  0  0  0  0  0  0  0  0  0  0
    4.8772  -15.8620   -1.6726 C   0  0  0  0  0  0  0  0  0  0  0  0
    3.8822  -16.0153   -2.6423 C   0  0  0  0  0  0  0  0  0  0  0  0
  1  2  2  0
  2  3  1  0
  3  4  2  0
  4  5  1  0
  5  6  2  0
  4  7  1  0
  7  8  1  0
  8  9  2  0
  8 10  1  0
 10 11  2  0
 10 12  1  0
 12 13  1  0
 13 14  2  0
 14 15  1  0
 15 16  2  0
 16 17  1  0
 17 18  2  0
  6  1  1  0
 18 13  1  0
M  END
$$$$
