
     RDKit          3D

 18 19  0  0  0  0  0  0  0  0999 V2000
    6.5536  -17.9110  -10.7577 C   0  0  0  0  0  0  0  0  0  0  0  0
    7.6413  -17.0794  -10.6307 C   0  0  0  0  0  0  0  0  0  0  0  0
    7.5378  -15.9022   -9.9200 C   0  0  0  0  0  0  0  0  0  0  0  0
    6.3460  -15.5211   -9.3160 C   0  0  0  0  0  0  0  0  0  0  0  0
    5.2832  -16.3755   -9.4641 C   0  0  0  0  0  0  0  0  0  0  0  0
    5.3555  -17.5588  -10.1681 C   0  0  0  0  0  0  0  0  0  0  0  0
    6.1939  -14.3511   -8.5938 O   0  0  0  0  0  0  0  0  0  0  0  0
    5.4692  -14.3189   -7.4249 C   0  0  0  0  0  0  0  0  0  0  0  0
    4.2371  -14.6467   -7.5169 O   0  0  0  0  0  0  0  0  0  0  0  0
    6.0009  -13.9485   -6.1402 C   0  0  0  0  0  0  0  0  0  0  0  0
    5.2414  -13.9091   -5.1437 O   0  0  0  0  0  0  0  0  0  0  0  0
    7.3337  -13.6297   -5.9572 O   0  0  0  0  0  0  0  0  0  0  0  0
    7.9633  -13.6243   -4.7227 C   0  0  0  0  0  0  0  0  0  0  0  0
    7.6849  -14.6451   -3.8436 C   0  0  0  0  0  0  0  0  0  0  0  0
    8.3385  -14.6031   -2.6130 C   0  0  0  0  0  0  0  0  0  0  0  0
    9.2174  -13.6151   -2.2615 C   0  0  0  0  0  0  0  0  0  0  0  0
    9.4853  -12.6008   -3.1520 C   0  0  0  0  0  0  0  0  0  0  0  0
    8.8446  -12.6165   -4.3941 C   0  0  0  0  0  0  0  0  0  0  0  0
  1  2  2  0
  2  3  1  0
  3  4  2  0
  4  5  1  0
  5  6  2  0
  4  7  1  0
  7  8  1  0
  8  9  2  0
  8 10  1  0
 10 11  2  0
 10 12  1  0
 12 13  1  0
 13 14  2  0
 14 15  1  0
 15 16  2  0
 16 17  1  0
 17 18  2  0
  6  1  1  0
 18 13  1  0
M  END
$$$$
