
     RDKit          3D

 18 19  0  0  0  0  0  0  0  0999 V2000
    1.0065  -16.1119   -5.7721 C   0  0  0  0  0  0  0  0  0  0  0  0
    0.7387  -15.0949   -4.8862 C   0  0  0  0  0  0  0  0  0  0  0  0
    1.7611  -14.3052   -4.4039 C   0  0  0  0  0  0  0  0  0  0  0  0
    3.0798  -14.5076   -4.7918 C   0  0  0  0  0  0  0  0  0  0  0  0
    3.3083  -15.5308   -5.6763 C   0  0  0  0  0  0  0  0  0  0  0  0
    2.3078  -16.3372   -6.1759 C   0  0  0  0  0  0  0  0  0  0  0  0
    4.1379  -13.7421   -4.3356 O   0  0  0  0  0  0  0  0  0  0  0  0
    5.4311  -14.0001   -4.7276 C   0  0  0  0  0  0  0  0  0  0  0  0
    5.8814  -15.1643   -4.4524 O   0  0  0  0  0  0  0  0  0  0  0  0
    6.2836  -13.0632   -5.4103 C   0  0  0  0  0  0  0  0  0  0  0  0
    5.7871  -12.0304   -5.9182 O   0  0  0  0  0  0  0  0  0  0  0  0
    7.6470  -13.2584   -5.5306 O   0  0  0  0  0  0  0  0  0  0  0  0
    8.5464  -13.0819   -4.4912 C   0  0  0  0  0  0  0  0  0  0  0  0
    8.3647  -12.0122   -3.6454 C   0  0  0  0  0  0  0  0  0  0  0  0
    9.2906  -11.8700   -2.6131 C   0  0  0  0  0  0  0  0  0  0  0  0
   10.3382  -12.7284   -2.4188 C   0  0  0  0  0  0  0  0  0  0  0  0
   10.5064  -13.7937   -3.2734 C   0  0  0  0  0  0  0  0  0  0  0  0
    9.5932  -13.9619   -4.3182 C   0  0  0  0  0  0  0  0  0  0  0  0
  1  2  2  0
  2  3  1  0
  3  4  2  0
  4  5  1  0
  5  6  2  0
  4  7  1  0
  7  8  1  0
  8  9  2  0
  8 10  1  0
 10 11  2  0
 10 12  1  0
 12 13  1  0
 13 14  2  0
 14 15  1  0
 15 16  2  0
 16 17  1  0
 17 18  2  0
  6  1  1  0
 18 13  1  0
M  END
$$$$
