
     RDKit          3D

 18 19  0  0  0  0  0  0  0  0999 V2000
   10.3836  -13.6551   -7.4376 C   0  0  0  0  0  0  0  0  0  0  0  0
   11.4460  -13.9308   -8.2660 C   0  0  0  0  0  0  0  0  0  0  0  0
   11.2516  -14.6348   -9.4357 C   0  0  0  0  0  0  0  0  0  0  0  0
    9.9919  -15.0838   -9.8122 C   0  0  0  0  0  0  0  0  0  0  0  0
    8.9569  -14.7900   -8.9613 C   0  0  0  0  0  0  0  0  0  0  0  0
    9.1194  -14.0884   -7.7855 C   0  0  0  0  0  0  0  0  0  0  0  0
    9.7478  -15.7929  -10.9747 O   0  0  0  0  0  0  0  0  0  0  0  0
    9.0050  -15.2552  -12.0001 C   0  0  0  0  0  0  0  0  0  0  0  0
    9.4636  -14.1844  -12.5264 O   0  0  0  0  0  0  0  0  0  0  0  0
    7.7762  -15.8110  -12.5018 C   0  0  0  0  0  0  0  0  0  0  0  0
    7.2809  -16.8200  -11.9469 O   0  0  0  0  0  0  0  0  0  0  0  0
    7.1102  -15.2702  -13.5860 O   0  0  0  0  0  0  0  0  0  0  0  0
    7.0610  -15.8652  -14.8365 C   0  0  0  0  0  0  0  0  0  0  0  0
    8.2458  -16.0964  -15.4963 C   0  0  0  0  0  0  0  0  0  0  0  0
    8.1532  -16.6964  -16.7512 C   0  0  0  0  0  0  0  0  0  0  0  0
    6.9650  -17.0513  -17.3294 C   0  0  0  0  0  0  0  0  0  0  0  0
    5.7885  -16.8134  -16.6566 C   0  0  0  0  0  0  0  0  0  0  0  0
    5.8501  -16.2128  -15.3960 C   0  0  0  0  0  0  0  0  0  0  0  0
  1  2  2  0
  2  3  1  0
  3  4  2  0
  4  5  1  0
  5  6  2  0
  4  7  1  0
  7  8  1  0
  8  9  2  0
  8 10  1  0
 10 11  2  0
 10 12  1  0
 12 13  1  0
 13 14  2  0
 14 15  1  0
 15 16  2  0
 16 17  1  0
 17 18  2  0
  6  1  1  0
 18 13  1  0
M  END
$$$$
