
     RDKit          3D

 18 19  0  0  0  0  0  0  0  0999 V2000
  -37.9302   -9.9450    8.2738 C   0  0  0  0  0  0  0  0  0  0  0  0
  -36.9566   -9.0899    7.8136 C   0  0  0  0  0  0  0  0  0  0  0  0
  -37.1195   -7.7252    7.9261 C   0  0  0  0  0  0  0  0  0  0  0  0
  -38.2583   -7.1748    8.5011 C   0  0  0  0  0  0  0  0  0  0  0  0
  -39.2072   -8.0584    8.9485 C   0  0  0  0  0  0  0  0  0  0  0  0
  -39.0734   -9.4271    8.8502 C   0  0  0  0  0  0  0  0  0  0  0  0
  -38.4663   -5.8138    8.6358 O   0  0  0  0  0  0  0  0  0  0  0  0
  -39.0145   -5.0679    7.6182 C   0  0  0  0  0  0  0  0  0  0  0  0
  -39.7110   -5.7110    6.7607 O   0  0  0  0  0  0  0  0  0  0  0  0
  -38.8550   -3.6460    7.4656 C   0  0  0  0  0  0  0  0  0  0  0  0
  -39.8407   -2.9438    7.1391 O   0  0  0  0  0  0  0  0  0  0  0  0
  -37.6421   -3.0137    7.6672 O   0  0  0  0  0  0  0  0  0  0  0  0
  -36.6838   -2.8500    6.6797 C   0  0  0  0  0  0  0  0  0  0  0  0
  -37.0937   -2.8475    5.3665 C   0  0  0  0  0  0  0  0  0  0  0  0
  -36.0993   -2.6802    4.4039 C   0  0  0  0  0  0  0  0  0  0  0  0
  -34.7749   -2.5238    4.7099 C   0  0  0  0  0  0  0  0  0  0  0  0
  -34.3809   -2.5285    6.0283 C   0  0  0  0  0  0  0  0  0  0  0  0
  -35.3560   -2.6944    7.0158 C   0  0  0  0  0  0  0  0  0  0  0  0
  1  2  2  0
  2  3  1  0
  3  4  2  0
  4  5  1  0
  5  6  2  0
  4  7  1  0
  7  8  1  0
  8  9  2  0
  8 10  1  0
 10 11  2  0
 10 12  1  0
 12 13  1  0
 13 14  2  0
 14 15  1  0
 15 16  2  0
 16 17  1  0
 17 18  2  0
  6  1  1  0
 18 13  1  0
M  END
$$$$
