
     RDKit          3D

 18 19  0  0  0  0  0  0  0  0999 V2000
   -1.1077  -18.3050  -16.1478 C   0  0  0  0  0  0  0  0  0  0  0  0
   -0.2919  -17.8148  -17.1404 C   0  0  0  0  0  0  0  0  0  0  0  0
    1.0432  -17.5776  -16.8898 C   0  0  0  0  0  0  0  0  0  0  0  0
    1.6025  -17.8227  -15.6419 C   0  0  0  0  0  0  0  0  0  0  0  0
    0.7585  -18.3112  -14.6772 C   0  0  0  0  0  0  0  0  0  0  0  0
   -0.5801  -18.5584  -14.8970 C   0  0  0  0  0  0  0  0  0  0  0  0
    2.9348  -17.6007  -15.3432 O   0  0  0  0  0  0  0  0  0  0  0  0
    3.3102  -16.8669  -14.2418 C   0  0  0  0  0  0  0  0  0  0  0  0
    3.4874  -15.6154  -14.4325 O   0  0  0  0  0  0  0  0  0  0  0  0
    3.5099  -17.4092  -12.9241 C   0  0  0  0  0  0  0  0  0  0  0  0
    3.3946  -18.6435  -12.7384 O   0  0  0  0  0  0  0  0  0  0  0  0
    3.8281  -16.6135  -11.8391 O   0  0  0  0  0  0  0  0  0  0  0  0
    4.1024  -17.1078  -10.5739 C   0  0  0  0  0  0  0  0  0  0  0  0
    5.4185  -17.2703  -10.2079 C   0  0  0  0  0  0  0  0  0  0  0  0
    5.6519  -17.7698   -8.9275 C   0  0  0  0  0  0  0  0  0  0  0  0
    4.6512  -18.0929   -8.0522 C   0  0  0  0  0  0  0  0  0  0  0  0
    3.3397  -17.9247   -8.4333 C   0  0  0  0  0  0  0  0  0  0  0  0
    3.0749  -17.4254   -9.7117 C   0  0  0  0  0  0  0  0  0  0  0  0
  1  2  2  0
  2  3  1  0
  3  4  2  0
  4  5  1  0
  5  6  2  0
  4  7  1  0
  7  8  1  0
  8  9  2  0
  8 10  1  0
 10 11  2  0
 10 12  1  0
 12 13  1  0
 13 14  2  0
 14 15  1  0
 15 16  2  0
 16 17  1  0
 17 18  2  0
  6  1  1  0
 18 13  1  0
M  END
$$$$
