
     RDKit          3D

 18 19  0  0  0  0  0  0  0  0999 V2000
    5.9234   -5.4798   -2.6905 C   0  0  0  0  0  0  0  0  0  0  0  0
    5.5752   -6.6104   -1.9894 C   0  0  0  0  0  0  0  0  0  0  0  0
    6.0784   -7.8401   -2.3584 C   0  0  0  0  0  0  0  0  0  0  0  0
    6.9431   -7.9769   -3.4372 C   0  0  0  0  0  0  0  0  0  0  0  0
    7.2676   -6.8277   -4.1122 C   0  0  0  0  0  0  0  0  0  0  0  0
    6.7812   -5.5845   -3.7676 C   0  0  0  0  0  0  0  0  0  0  0  0
    7.4729   -9.1881   -3.8447 O   0  0  0  0  0  0  0  0  0  0  0  0
    6.9175   -9.9014   -4.8815 C   0  0  0  0  0  0  0  0  0  0  0  0
    7.6059   -9.9605   -5.9570 O   0  0  0  0  0  0  0  0  0  0  0  0
    5.6426  -10.5666   -4.8292 C   0  0  0  0  0  0  0  0  0  0  0  0
    4.9092  -10.4215   -3.8231 O   0  0  0  0  0  0  0  0  0  0  0  0
    5.1871  -11.3705   -5.8577 O   0  0  0  0  0  0  0  0  0  0  0  0
    5.7020  -12.6252   -6.1422 C   0  0  0  0  0  0  0  0  0  0  0  0
    6.7322  -12.7177   -7.0491 C   0  0  0  0  0  0  0  0  0  0  0  0
    7.2217  -13.9971   -7.3075 C   0  0  0  0  0  0  0  0  0  0  0  0
    6.7295  -15.1255   -6.7105 C   0  0  0  0  0  0  0  0  0  0  0  0
    5.6988  -15.0164   -5.8054 C   0  0  0  0  0  0  0  0  0  0  0  0
    5.1873  -13.7459   -5.5262 C   0  0  0  0  0  0  0  0  0  0  0  0
  1  2  2  0
  2  3  1  0
  3  4  2  0
  4  5  1  0
  5  6  2  0
  4  7  1  0
  7  8  1  0
  8  9  2  0
  8 10  1  0
 10 11  2  0
 10 12  1  0
 12 13  1  0
 13 14  2  0
 14 15  1  0
 15 16  2  0
 16 17  1  0
 17 18  2  0
  6  1  1  0
 18 13  1  0
M  END
$$$$
