
     RDKit          3D

 18 19  0  0  0  0  0  0  0  0999 V2000
   -1.4556    0.4985  -11.5210 C   0  0  0  0  0  0  0  0  0  0  0  0
   -2.3363   -0.5239  -11.2564 C   0  0  0  0  0  0  0  0  0  0  0  0
   -2.6383   -1.4515  -12.2310 C   0  0  0  0  0  0  0  0  0  0  0  0
   -2.0704   -1.3856  -13.4973 C   0  0  0  0  0  0  0  0  0  0  0  0
   -1.1971   -0.3524  -13.7242 C   0  0  0  0  0  0  0  0  0  0  0  0
   -0.8752    0.5900  -12.7707 C   0  0  0  0  0  0  0  0  0  0  0  0
   -2.3424   -2.2920  -14.5063 O   0  0  0  0  0  0  0  0  0  0  0  0
   -3.1552   -1.9627  -15.5661 C   0  0  0  0  0  0  0  0  0  0  0  0
   -3.1835   -2.7966  -16.5345 O   0  0  0  0  0  0  0  0  0  0  0  0
   -3.9536   -0.7684  -15.6474 C   0  0  0  0  0  0  0  0  0  0  0  0
   -3.9488    0.0458  -14.6944 O   0  0  0  0  0  0  0  0  0  0  0  0
   -4.7369   -0.4780  -16.7492 O   0  0  0  0  0  0  0  0  0  0  0  0
   -6.0917   -0.7584  -16.8282 C   0  0  0  0  0  0  0  0  0  0  0  0
   -6.9615    0.0113  -16.0911 C   0  0  0  0  0  0  0  0  0  0  0  0
   -8.3155   -0.3029  -16.1982 C   0  0  0  0  0  0  0  0  0  0  0  0
   -8.7926   -1.3159  -16.9844 C   0  0  0  0  0  0  0  0  0  0  0  0
   -7.9096   -2.0769  -17.7157 C   0  0  0  0  0  0  0  0  0  0  0  0
   -6.5455   -1.7850  -17.6283 C   0  0  0  0  0  0  0  0  0  0  0  0
  1  2  2  0
  2  3  1  0
  3  4  2  0
  4  5  1  0
  5  6  2  0
  4  7  1  0
  7  8  1  0
  8  9  2  0
  8 10  1  0
 10 11  2  0
 10 12  1  0
 12 13  1  0
 13 14  2  0
 14 15  1  0
 15 16  2  0
 16 17  1  0
 17 18  2  0
  6  1  1  0
 18 13  1  0
M  END
$$$$
