
     RDKit          3D

 18 19  0  0  0  0  0  0  0  0999 V2000
   13.9418  -19.4133  -18.1305 C   0  0  0  0  0  0  0  0  0  0  0  0
   12.9477  -19.3514  -19.0786 C   0  0  0  0  0  0  0  0  0  0  0  0
   11.6222  -19.3914  -18.7004 C   0  0  0  0  0  0  0  0  0  0  0  0
   11.2507  -19.4943  -17.3656 C   0  0  0  0  0  0  0  0  0  0  0  0
   12.2693  -19.5537  -16.4488 C   0  0  0  0  0  0  0  0  0  0  0  0
   13.6032  -19.5160  -16.7956 C   0  0  0  0  0  0  0  0  0  0  0  0
    9.9358  -19.5379  -16.9383 O   0  0  0  0  0  0  0  0  0  0  0  0
    9.0051  -18.6303  -17.3881 C   0  0  0  0  0  0  0  0  0  0  0  0
    8.7694  -17.6370  -16.6188 O   0  0  0  0  0  0  0  0  0  0  0  0
    8.3004  -18.7296  -18.6388 C   0  0  0  0  0  0  0  0  0  0  0  0
    8.3926  -19.7777  -19.3200 O   0  0  0  0  0  0  0  0  0  0  0  0
    7.5147  -17.7018  -19.1266 O   0  0  0  0  0  0  0  0  0  0  0  0
    6.1306  -17.6895  -19.0583 C   0  0  0  0  0  0  0  0  0  0  0  0
    5.4588  -18.8797  -19.2151 C   0  0  0  0  0  0  0  0  0  0  0  0
    4.0679  -18.8245  -19.1397 C   0  0  0  0  0  0  0  0  0  0  0  0
    3.3718  -17.6669  -18.9225 C   0  0  0  0  0  0  0  0  0  0  0  0
    4.0583  -16.4844  -18.7676 C   0  0  0  0  0  0  0  0  0  0  0  0
    5.4541  -16.5088  -18.8384 C   0  0  0  0  0  0  0  0  0  0  0  0
  1  2  2  0
  2  3  1  0
  3  4  2  0
  4  5  1  0
  5  6  2  0
  4  7  1  0
  7  8  1  0
  8  9  2  0
  8 10  1  0
 10 11  2  0
 10 12  1  0
 12 13  1  0
 13 14  2  0
 14 15  1  0
 15 16  2  0
 16 17  1  0
 17 18  2  0
  6  1  1  0
 18 13  1  0
M  END
$$$$
