
     RDKit          3D

 18 19  0  0  0  0  0  0  0  0999 V2000
   -4.1087  -18.1549  -23.5951 C   0  0  0  0  0  0  0  0  0  0  0  0
   -4.4818  -19.1985  -22.7811 C   0  0  0  0  0  0  0  0  0  0  0  0
   -4.2735  -19.1279  -21.4198 C   0  0  0  0  0  0  0  0  0  0  0  0
   -3.6871  -18.0141  -20.8318 C   0  0  0  0  0  0  0  0  0  0  0  0
   -3.3283  -16.9934  -21.6749 C   0  0  0  0  0  0  0  0  0  0  0  0
   -3.5234  -17.0344  -23.0392 C   0  0  0  0  0  0  0  0  0  0  0  0
   -3.4580  -17.8976  -19.4725 O   0  0  0  0  0  0  0  0  0  0  0  0
   -2.2605  -18.2772  -18.9120 C   0  0  0  0  0  0  0  0  0  0  0  0
   -2.1441  -19.5155  -18.6170 O   0  0  0  0  0  0  0  0  0  0  0  0
   -1.1612  -17.3878  -18.6452 C   0  0  0  0  0  0  0  0  0  0  0  0
   -1.2763  -16.1664  -18.9024 O   0  0  0  0  0  0  0  0  0  0  0  0
    0.0335  -17.8315  -18.1092 O   0  0  0  0  0  0  0  0  0  0  0  0
    0.2302  -18.0756  -16.7593 C   0  0  0  0  0  0  0  0  0  0  0  0
   -0.8520  -18.4575  -16.0007 C   0  0  0  0  0  0  0  0  0  0  0  0
   -0.6123  -18.6933  -14.6478 C   0  0  0  0  0  0  0  0  0  0  0  0
    0.6203  -18.5624  -14.0684 C   0  0  0  0  0  0  0  0  0  0  0  0
    1.6929  -18.1796  -14.8407 C   0  0  0  0  0  0  0  0  0  0  0  0
    1.4828  -17.9361  -16.2010 C   0  0  0  0  0  0  0  0  0  0  0  0
  1  2  2  0
  2  3  1  0
  3  4  2  0
  4  5  1  0
  5  6  2  0
  4  7  1  0
  7  8  1  0
  8  9  2  0
  8 10  1  0
 10 11  2  0
 10 12  1  0
 12 13  1  0
 13 14  2  0
 14 15  1  0
 15 16  2  0
 16 17  1  0
 17 18  2  0
  6  1  1  0
 18 13  1  0
M  END
$$$$
