
     RDKit          3D

 18 19  0  0  0  0  0  0  0  0999 V2000
  -19.5071   -0.2427  -15.4156 C   0  0  0  0  0  0  0  0  0  0  0  0
  -18.5330   -0.2232  -14.4451 C   0  0  0  0  0  0  0  0  0  0  0  0
  -18.8807   -0.1899  -13.1111 C   0  0  0  0  0  0  0  0  0  0  0  0
  -20.2100   -0.1752  -12.7073 C   0  0  0  0  0  0  0  0  0  0  0  0
  -21.1533   -0.1954  -13.7030 C   0  0  0  0  0  0  0  0  0  0  0  0
  -20.8372   -0.2287  -15.0446 C   0  0  0  0  0  0  0  0  0  0  0  0
  -20.6072   -0.1419  -11.3826 O   0  0  0  0  0  0  0  0  0  0  0  0
  -20.4252   -1.2233  -10.5520 C   0  0  0  0  0  0  0  0  0  0  0  0
  -19.4826   -1.1225   -9.6945 O   0  0  0  0  0  0  0  0  0  0  0  0
  -21.2110   -2.4281  -10.5899 C   0  0  0  0  0  0  0  0  0  0  0  0
  -20.9073   -3.3893   -9.8447 O   0  0  0  0  0  0  0  0  0  0  0  0
  -22.3027   -2.5711  -11.4262 O   0  0  0  0  0  0  0  0  0  0  0  0
  -23.0917   -3.7092  -11.4773 C   0  0  0  0  0  0  0  0  0  0  0  0
  -22.4963   -4.9271  -11.2436 C   0  0  0  0  0  0  0  0  0  0  0  0
  -23.3242   -6.0471  -11.3042 C   0  0  0  0  0  0  0  0  0  0  0  0
  -24.6629   -5.9789  -11.5787 C   0  0  0  0  0  0  0  0  0  0  0  0
  -25.2436   -4.7530  -11.8101 C   0  0  0  0  0  0  0  0  0  0  0  0
  -24.4382   -3.6120  -11.7560 C   0  0  0  0  0  0  0  0  0  0  0  0
  1  2  2  0
  2  3  1  0
  3  4  2  0
  4  5  1  0
  5  6  2  0
  4  7  1  0
  7  8  1  0
  8  9  2  0
  8 10  1  0
 10 11  2  0
 10 12  1  0
 12 13  1  0
 13 14  2  0
 14 15  1  0
 15 16  2  0
 16 17  1  0
 17 18  2  0
  6  1  1  0
 18 13  1  0
M  END
$$$$
