
     RDKit          3D

 18 19  0  0  0  0  0  0  0  0999 V2000
   -0.5846    0.7809  -12.3780 C   0  0  0  0  0  0  0  0  0  0  0  0
   -1.3442   -0.3528  -12.2081 C   0  0  0  0  0  0  0  0  0  0  0  0
   -1.7233   -0.7531  -10.9441 C   0  0  0  0  0  0  0  0  0  0  0  0
   -1.3555   -0.0338   -9.8138 C   0  0  0  0  0  0  0  0  0  0  0  0
   -0.5983    1.0908  -10.0224 C   0  0  0  0  0  0  0  0  0  0  0  0
   -0.2037    1.5164  -11.2731 C   0  0  0  0  0  0  0  0  0  0  0  0
   -1.7115   -0.3956   -8.5269 O   0  0  0  0  0  0  0  0  0  0  0  0
   -0.8771   -1.1534   -7.7382 C   0  0  0  0  0  0  0  0  0  0  0  0
    0.0471   -1.7925   -8.3477 O   0  0  0  0  0  0  0  0  0  0  0  0
   -0.9797   -1.2663   -6.3074 C   0  0  0  0  0  0  0  0  0  0  0  0
   -0.0585   -1.8199   -5.6623 O   0  0  0  0  0  0  0  0  0  0  0  0
   -2.0680   -0.7825   -5.6052 O   0  0  0  0  0  0  0  0  0  0  0  0
   -3.0254   -1.5906   -5.0131 C   0  0  0  0  0  0  0  0  0  0  0  0
   -2.7602   -2.9350   -4.8917 C   0  0  0  0  0  0  0  0  0  0  0  0
   -3.7485   -3.7131   -4.2907 C   0  0  0  0  0  0  0  0  0  0  0  0
   -4.9327   -3.2030   -3.8331 C   0  0  0  0  0  0  0  0  0  0  0  0
   -5.1831   -1.8561   -3.9618 C   0  0  0  0  0  0  0  0  0  0  0  0
   -4.2102   -1.0506   -4.5607 C   0  0  0  0  0  0  0  0  0  0  0  0
  1  2  2  0
  2  3  1  0
  3  4  2  0
  4  5  1  0
  5  6  2  0
  4  7  1  0
  7  8  1  0
  8  9  2  0
  8 10  1  0
 10 11  2  0
 10 12  1  0
 12 13  1  0
 13 14  2  0
 14 15  1  0
 15 16  2  0
 16 17  1  0
 17 18  2  0
  6  1  1  0
 18 13  1  0
M  END
$$$$
