
     RDKit          3D

 18 19  0  0  0  0  0  0  0  0999 V2000
  -35.4307    5.9383   44.5272 C   0  0  0  0  0  0  0  0  0  0  0  0
  -36.7683    6.0083   44.8386 C   0  0  0  0  0  0  0  0  0  0  0  0
  -37.5976    4.9352   44.5894 C   0  0  0  0  0  0  0  0  0  0  0  0
  -37.1162    3.7616   44.0226 C   0  0  0  0  0  0  0  0  0  0  0  0
  -35.7775    3.7286   43.7257 C   0  0  0  0  0  0  0  0  0  0  0  0
  -34.9232    4.7846   43.9627 C   0  0  0  0  0  0  0  0  0  0  0  0
  -37.9087    2.6599   43.7544 O   0  0  0  0  0  0  0  0  0  0  0  0
  -37.7957    1.5002   44.4856 C   0  0  0  0  0  0  0  0  0  0  0  0
  -36.9349    1.5117   45.4305 O   0  0  0  0  0  0  0  0  0  0  0  0
  -38.5676    0.3076   44.2565 C   0  0  0  0  0  0  0  0  0  0  0  0
  -38.6108   -0.5812   45.1394 O   0  0  0  0  0  0  0  0  0  0  0  0
  -39.2735    0.0990   43.0862 O   0  0  0  0  0  0  0  0  0  0  0  0
  -39.6739   -1.1500   42.6389 C   0  0  0  0  0  0  0  0  0  0  0  0
  -38.8739   -1.8059   41.7321 C   0  0  0  0  0  0  0  0  0  0  0  0
  -39.3118   -3.0593   41.3072 C   0  0  0  0  0  0  0  0  0  0  0  0
  -40.4705   -3.6397   41.7461 C   0  0  0  0  0  0  0  0  0  0  0  0
  -41.2600   -2.9708   42.6532 C   0  0  0  0  0  0  0  0  0  0  0  0
  -40.8462   -1.7117   43.0974 C   0  0  0  0  0  0  0  0  0  0  0  0
  1  2  2  0
  2  3  1  0
  3  4  2  0
  4  5  1  0
  5  6  2  0
  4  7  1  0
  7  8  1  0
  8  9  2  0
  8 10  1  0
 10 11  2  0
 10 12  1  0
 12 13  1  0
 13 14  2  0
 14 15  1  0
 15 16  2  0
 16 17  1  0
 17 18  2  0
  6  1  1  0
 18 13  1  0
M  END
$$$$
