
     RDKit          3D

 18 19  0  0  0  0  0  0  0  0999 V2000
    1.9613  -17.7425   -4.9377 C   0  0  0  0  0  0  0  0  0  0  0  0
    1.0937  -17.1740   -5.8405 C   0  0  0  0  0  0  0  0  0  0  0  0
    1.3399  -15.9136   -6.3430 C   0  0  0  0  0  0  0  0  0  0  0  0
    2.4585  -15.1845   -5.9590 C   0  0  0  0  0  0  0  0  0  0  0  0
    3.3008  -15.7838   -5.0572 C   0  0  0  0  0  0  0  0  0  0  0  0
    3.0819  -17.0418   -4.5372 C   0  0  0  0  0  0  0  0  0  0  0  0
    2.7473  -13.9182   -6.4351 O   0  0  0  0  0  0  0  0  0  0  0  0
    2.8247  -12.8350   -5.5907 C   0  0  0  0  0  0  0  0  0  0  0  0
    3.6985  -11.9506   -5.8877 O   0  0  0  0  0  0  0  0  0  0  0  0
    2.0032  -12.6434   -4.4250 C   0  0  0  0  0  0  0  0  0  0  0  0
    0.9942  -13.3670   -4.2527 O   0  0  0  0  0  0  0  0  0  0  0  0
    2.2850  -11.6803   -3.4739 O   0  0  0  0  0  0  0  0  0  0  0  0
    1.7619  -10.3972   -3.4965 C   0  0  0  0  0  0  0  0  0  0  0  0
    1.5252   -9.7677   -2.2964 C   0  0  0  0  0  0  0  0  0  0  0  0
    0.9989   -8.4785   -2.3624 C   0  0  0  0  0  0  0  0  0  0  0  0
    0.7193   -7.8396   -3.5396 C   0  0  0  0  0  0  0  0  0  0  0  0
    0.9617   -8.4828   -4.7317 C   0  0  0  0  0  0  0  0  0  0  0  0
    1.4894   -9.7767   -4.6968 C   0  0  0  0  0  0  0  0  0  0  0  0
  1  2  2  0
  2  3  1  0
  3  4  2  0
  4  5  1  0
  5  6  2  0
  4  7  1  0
  7  8  1  0
  8  9  2  0
  8 10  1  0
 10 11  2  0
 10 12  1  0
 12 13  1  0
 13 14  2  0
 14 15  1  0
 15 16  2  0
 16 17  1  0
 17 18  2  0
  6  1  1  0
 18 13  1  0
M  END
$$$$
