
     RDKit          3D

 18 19  0  0  0  0  0  0  0  0999 V2000
   -6.4208    3.7464    2.3823 C   0  0  0  0  0  0  0  0  0  0  0  0
   -5.4573    2.9023    2.8824 C   0  0  0  0  0  0  0  0  0  0  0  0
   -5.7038    1.5496    2.9869 C   0  0  0  0  0  0  0  0  0  0  0  0
   -6.9186    1.0005    2.5955 C   0  0  0  0  0  0  0  0  0  0  0  0
   -7.8549    1.8729    2.1018 C   0  0  0  0  0  0  0  0  0  0  0  0
   -7.6382    3.2296    1.9851 C   0  0  0  0  0  0  0  0  0  0  0  0
   -7.2118   -0.3487    2.6814 O   0  0  0  0  0  0  0  0  0  0  0  0
   -7.4757   -1.0981    1.5584 C   0  0  0  0  0  0  0  0  0  0  0  0
   -7.5749   -0.4513    0.4602 O   0  0  0  0  0  0  0  0  0  0  0  0
   -7.6423   -2.5273    1.5464 C   0  0  0  0  0  0  0  0  0  0  0  0
   -7.8586   -3.1345    2.6214 O   0  0  0  0  0  0  0  0  0  0  0  0
   -7.5725   -3.2685    0.3814 O   0  0  0  0  0  0  0  0  0  0  0  0
   -8.5216   -4.2055    0.0050 C   0  0  0  0  0  0  0  0  0  0  0  0
   -8.1004   -5.4845   -0.2761 C   0  0  0  0  0  0  0  0  0  0  0  0
   -9.0857   -6.3967   -0.6508 C   0  0  0  0  0  0  0  0  0  0  0  0
  -10.4121   -6.0746   -0.7453 C   0  0  0  0  0  0  0  0  0  0  0  0
  -10.8176   -4.7908   -0.4608 C   0  0  0  0  0  0  0  0  0  0  0  0
   -9.8517   -3.8541   -0.0822 C   0  0  0  0  0  0  0  0  0  0  0  0
  1  2  2  0
  2  3  1  0
  3  4  2  0
  4  5  1  0
  5  6  2  0
  4  7  1  0
  7  8  1  0
  8  9  2  0
  8 10  1  0
 10 11  2  0
 10 12  1  0
 12 13  1  0
 13 14  2  0
 14 15  1  0
 15 16  2  0
 16 17  1  0
 17 18  2  0
  6  1  1  0
 18 13  1  0
M  END
$$$$
