
     RDKit          3D

 18 19  0  0  0  0  0  0  0  0999 V2000
   -8.5570   -3.4059   17.0277 C   0  0  0  0  0  0  0  0  0  0  0  0
   -9.1159   -2.1787   16.7588 C   0  0  0  0  0  0  0  0  0  0  0  0
   -8.3163   -1.0619   16.6361 C   0  0  0  0  0  0  0  0  0  0  0  0
   -6.9363   -1.1378   16.7783 C   0  0  0  0  0  0  0  0  0  0  0  0
   -6.4150   -2.3780   17.0460 C   0  0  0  0  0  0  0  0  0  0  0  0
   -7.1880   -3.5125   17.1743 C   0  0  0  0  0  0  0  0  0  0  0  0
   -6.0939   -0.0464   16.6641 O   0  0  0  0  0  0  0  0  0  0  0  0
   -5.1624    0.0380   15.6554 C   0  0  0  0  0  0  0  0  0  0  0  0
   -5.0811   -0.9733   14.8778 O   0  0  0  0  0  0  0  0  0  0  0  0
   -4.2979    1.1658   15.4296 C   0  0  0  0  0  0  0  0  0  0  0  0
   -3.0546    1.0088   15.4595 O   0  0  0  0  0  0  0  0  0  0  0  0
   -4.7892    2.4333   15.1774 O   0  0  0  0  0  0  0  0  0  0  0  0
   -6.0976    2.8170   15.4247 C   0  0  0  0  0  0  0  0  0  0  0  0
   -6.3341    3.7113   16.4429 C   0  0  0  0  0  0  0  0  0  0  0  0
   -7.6633    4.0716   16.6594 C   0  0  0  0  0  0  0  0  0  0  0  0
   -8.7051    3.5829   15.9193 C   0  0  0  0  0  0  0  0  0  0  0  0
   -8.4521    2.6891   14.9041 C   0  0  0  0  0  0  0  0  0  0  0  0
   -7.1286    2.3092   14.6636 C   0  0  0  0  0  0  0  0  0  0  0  0
  1  2  2  0
  2  3  1  0
  3  4  2  0
  4  5  1  0
  5  6  2  0
  4  7  1  0
  7  8  1  0
  8  9  2  0
  8 10  1  0
 10 11  2  0
 10 12  1  0
 12 13  1  0
 13 14  2  0
 14 15  1  0
 15 16  2  0
 16 17  1  0
 17 18  2  0
  6  1  1  0
 18 13  1  0
M  END
$$$$
