
     RDKit          3D

 18 19  0  0  0  0  0  0  0  0999 V2000
   15.8542  -33.3666   -0.9762 C   0  0  0  0  0  0  0  0  0  0  0  0
   16.2275  -32.4246   -1.9058 C   0  0  0  0  0  0  0  0  0  0  0  0
   15.3484  -32.0369   -2.8949 C   0  0  0  0  0  0  0  0  0  0  0  0
   14.0719  -32.5779   -2.9849 C   0  0  0  0  0  0  0  0  0  0  0  0
   13.7352  -33.5143   -2.0407 C   0  0  0  0  0  0  0  0  0  0  0  0
   14.5915  -33.9223   -1.0401 C   0  0  0  0  0  0  0  0  0  0  0  0
   13.1560  -32.2209   -3.9582 O   0  0  0  0  0  0  0  0  0  0  0  0
   11.8701  -31.8559   -3.6335 C   0  0  0  0  0  0  0  0  0  0  0  0
   11.1192  -32.7843   -3.1773 O   0  0  0  0  0  0  0  0  0  0  0  0
   11.3345  -30.5276   -3.7729 C   0  0  0  0  0  0  0  0  0  0  0  0
   10.2312  -30.3617   -4.3443 O   0  0  0  0  0  0  0  0  0  0  0  0
   11.9961  -29.4113   -3.2958 O   0  0  0  0  0  0  0  0  0  0  0  0
   11.3843  -28.4055   -2.5649 C   0  0  0  0  0  0  0  0  0  0  0  0
   10.6886  -27.4341   -3.2467 C   0  0  0  0  0  0  0  0  0  0  0  0
   10.0879  -26.4405   -2.4752 C   0  0  0  0  0  0  0  0  0  0  0  0
   10.1640  -26.3996   -1.1097 C   0  0  0  0  0  0  0  0  0  0  0  0
   10.8637  -27.3786   -0.4422 C   0  0  0  0  0  0  0  0  0  0  0  0
   11.4767  -28.3882   -1.1897 C   0  0  0  0  0  0  0  0  0  0  0  0
  1  2  2  0
  2  3  1  0
  3  4  2  0
  4  5  1  0
  5  6  2  0
  4  7  1  0
  7  8  1  0
  8  9  2  0
  8 10  1  0
 10 11  2  0
 10 12  1  0
 12 13  1  0
 13 14  2  0
 14 15  1  0
 15 16  2  0
 16 17  1  0
 17 18  2  0
  6  1  1  0
 18 13  1  0
M  END
$$$$
