
     RDKit          3D

 18 19  0  0  0  0  0  0  0  0999 V2000
    5.2440  -13.0883   -4.0744 C   0  0  0  0  0  0  0  0  0  0  0  0
    4.5709  -12.4571   -5.0939 C   0  0  0  0  0  0  0  0  0  0  0  0
    4.4551  -11.0830   -5.1049 C   0  0  0  0  0  0  0  0  0  0  0  0
    5.0075  -10.2997   -4.0992 C   0  0  0  0  0  0  0  0  0  0  0  0
    5.6712  -10.9641   -3.0995 C   0  0  0  0  0  0  0  0  0  0  0  0
    5.8038  -12.3360   -3.0607 C   0  0  0  0  0  0  0  0  0  0  0  0
    4.9174   -8.9196   -4.0674 O   0  0  0  0  0  0  0  0  0  0  0  0
    5.4075   -8.1451   -5.0932 C   0  0  0  0  0  0  0  0  0  0  0  0
    6.6327   -8.3332   -5.4052 O   0  0  0  0  0  0  0  0  0  0  0  0
    4.6441   -7.1628   -5.8162 C   0  0  0  0  0  0  0  0  0  0  0  0
    4.8779   -6.9691   -7.0324 O   0  0  0  0  0  0  0  0  0  0  0  0
    3.6492   -6.4133   -5.2160 O   0  0  0  0  0  0  0  0  0  0  0  0
    3.8768   -5.5085   -4.1914 C   0  0  0  0  0  0  0  0  0  0  0  0
    3.2504   -5.7179   -2.9847 C   0  0  0  0  0  0  0  0  0  0  0  0
    3.5053   -4.7853   -1.9803 C   0  0  0  0  0  0  0  0  0  0  0  0
    4.3291   -3.7058   -2.1479 C   0  0  0  0  0  0  0  0  0  0  0  0
    4.9485   -3.5102   -3.3610 C   0  0  0  0  0  0  0  0  0  0  0  0
    4.7116   -4.4292   -4.3872 C   0  0  0  0  0  0  0  0  0  0  0  0
  1  2  2  0
  2  3  1  0
  3  4  2  0
  4  5  1  0
  5  6  2  0
  4  7  1  0
  7  8  1  0
  8  9  2  0
  8 10  1  0
 10 11  2  0
 10 12  1  0
 12 13  1  0
 13 14  2  0
 14 15  1  0
 15 16  2  0
 16 17  1  0
 17 18  2  0
  6  1  1  0
 18 13  1  0
M  END
$$$$
