
     RDKit          3D

 18 19  0  0  0  0  0  0  0  0999 V2000
   28.5864  -19.3990  -29.0905 C   0  0  0  0  0  0  0  0  0  0  0  0
   28.7833  -18.1850  -29.7056 C   0  0  0  0  0  0  0  0  0  0  0  0
   28.6061  -18.0582  -31.0672 C   0  0  0  0  0  0  0  0  0  0  0  0
   28.2273  -19.1388  -31.8540 C   0  0  0  0  0  0  0  0  0  0  0  0
   28.0401  -20.3331  -31.2058 C   0  0  0  0  0  0  0  0  0  0  0  0
   28.2095  -20.4914  -29.8466 C   0  0  0  0  0  0  0  0  0  0  0  0
   28.0375  -19.0604  -33.2220 O   0  0  0  0  0  0  0  0  0  0  0  0
   26.7817  -19.1423  -33.7776 C   0  0  0  0  0  0  0  0  0  0  0  0
   26.7271  -19.1058  -35.0542 O   0  0  0  0  0  0  0  0  0  0  0  0
   25.5594  -19.2633  -33.0280 C   0  0  0  0  0  0  0  0  0  0  0  0
   24.4586  -19.2076  -33.6251 O   0  0  0  0  0  0  0  0  0  0  0  0
   25.5492  -19.4411  -31.6569 O   0  0  0  0  0  0  0  0  0  0  0  0
   24.5283  -20.0775  -30.9690 C   0  0  0  0  0  0  0  0  0  0  0  0
   23.8908  -19.3888  -29.9632 C   0  0  0  0  0  0  0  0  0  0  0  0
   22.8700  -20.0640  -29.2959 C   0  0  0  0  0  0  0  0  0  0  0  0
   22.4932  -21.3445  -29.5966 C   0  0  0  0  0  0  0  0  0  0  0  0
   23.1407  -22.0201  -30.6055 C   0  0  0  0  0  0  0  0  0  0  0  0
   24.1688  -21.3683  -31.2925 C   0  0  0  0  0  0  0  0  0  0  0  0
  1  2  2  0
  2  3  1  0
  3  4  2  0
  4  5  1  0
  5  6  2  0
  4  7  1  0
  7  8  1  0
  8  9  2  0
  8 10  1  0
 10 11  2  0
 10 12  1  0
 12 13  1  0
 13 14  2  0
 14 15  1  0
 15 16  2  0
 16 17  1  0
 17 18  2  0
  6  1  1  0
 18 13  1  0
M  END
$$$$
