
     RDKit          3D

 18 19  0  0  0  0  0  0  0  0999 V2000
    8.5445  -15.0637   -3.5208 C   0  0  0  0  0  0  0  0  0  0  0  0
    7.5262  -15.3260   -4.4069 C   0  0  0  0  0  0  0  0  0  0  0  0
    7.7797  -15.3816   -5.7613 C   0  0  0  0  0  0  0  0  0  0  0  0
    9.0563  -15.1771   -6.2700 C   0  0  0  0  0  0  0  0  0  0  0  0
   10.0460  -14.9181   -5.3563 C   0  0  0  0  0  0  0  0  0  0  0  0
    9.8240  -14.8561   -3.9969 C   0  0  0  0  0  0  0  0  0  0  0  0
    9.3590  -15.2228   -7.6191 O   0  0  0  0  0  0  0  0  0  0  0  0
    9.6449  -16.4114   -8.2500 C   0  0  0  0  0  0  0  0  0  0  0  0
   10.8172  -16.8833   -8.0577 O   0  0  0  0  0  0  0  0  0  0  0  0
    8.7282  -17.1352   -9.0903 C   0  0  0  0  0  0  0  0  0  0  0  0
    7.5445  -16.7380   -9.2017 O   0  0  0  0  0  0  0  0  0  0  0  0
    9.1048  -18.2668   -9.7899 O   0  0  0  0  0  0  0  0  0  0  0  0
    9.1282  -18.3465  -11.1732 C   0  0  0  0  0  0  0  0  0  0  0  0
    8.0036  -17.9660  -11.8680 C   0  0  0  0  0  0  0  0  0  0  0  0
    8.0678  -18.0611  -13.2573 C   0  0  0  0  0  0  0  0  0  0  0  0
    9.1732  -18.5049  -13.9305 C   0  0  0  0  0  0  0  0  0  0  0  0
   10.2904  -18.8819  -13.2211 C   0  0  0  0  0  0  0  0  0  0  0  0
   10.2554  -18.7972  -11.8263 C   0  0  0  0  0  0  0  0  0  0  0  0
  1  2  2  0
  2  3  1  0
  3  4  2  0
  4  5  1  0
  5  6  2  0
  4  7  1  0
  7  8  1  0
  8  9  2  0
  8 10  1  0
 10 11  2  0
 10 12  1  0
 12 13  1  0
 13 14  2  0
 14 15  1  0
 15 16  2  0
 16 17  1  0
 17 18  2  0
  6  1  1  0
 18 13  1  0
M  END
$$$$
